      11
 read list vx vy vz phi psi theta
C            12.00      8.00     30.00      0.00      0.00      0.00     -1.43592168     -0.10377327      3.03215366
C             3.00      6.00      6.00      0.00      0.00      0.00     -0.39013153     -1.08712013      1.11076256
C            11.00     21.00     28.00      0.00      0.00      0.00     -2.68484174     -0.77860438     -1.67066185
C            25.00      9.00     13.00      0.00      0.00      0.00     -1.39478426     -0.08054054      2.35724582
C            19.00     27.00      5.00      0.00      0.00      0.00     -1.16291456      1.15812532     -0.46735264
C            32.00     14.00     27.00      0.00      0.00      0.00      1.74781087      1.06365596      1.32571321
C            32.00     19.00     11.00      0.00      0.00      0.00      2.97733016      1.05625960      0.54191755
C            14.00      1.00     14.00      0.00      0.00      0.00     -0.61090784      0.15833134     -2.73632893
C             1.00     31.00     19.00      0.00      0.00      0.00     -2.36650210      1.20698888      2.17796006
C            25.00     23.00     23.00      0.00      0.00      0.00      0.99857210      1.26843059      0.93351870
C            24.00      4.00     29.00      0.00      0.00      0.00     -2.50466107     -0.19415536     -2.54960151
